/*--------------------------------*- C++ -*----------------------------------*\
| =========                 |                                                 |
| \\      /  F ield         | OpenFOAM: The Open Source CFD Toolbox           |
|  \\    /   O peration     | Version:  2006                                  |
|   \\  /    A nd           | Website:  www.openfoam.com                      |
|    \\/     M anipulation  |                                                 |
\*---------------------------------------------------------------------------*/
FoamFile
{
    version     2.0;
    format      ascii;
    class       featureEdgeMesh;
    location    "constant/triSurface";
    object      camion.eMesh;
}
// * * * * * * * * * * * * * * * * * * * * * * * * * * * * * * * * * * * * * //


// points:

56
(
(-75.311340332 2.94783241633e-15 13.2758569717)
(-75.311340332 -10 13.2758569717)
(38.2213630676 -10 3.85366511345)
(38.2213630676 8.55685547629e-16 3.85366511345)
(41.5143470764 9.43116725196e-17 0.424742013216)
(41.5143470764 -10 0.424742013216)
(67.1174850464 6.45468156391e-17 0.29069301486)
(67.1174850464 -10 0.29069301486)
(69.9324798584 6.00310249169e-16 2.70355701447)
(69.9324798584 -10 2.70355701447)
(72.7765731812 2.91207259112e-15 13.1148090363)
(72.7765731812 -10 13.1148090363)
(72.7766494751 1.06374666562e-14 47.9068908691)
(72.7766494751 -10 47.9068908691)
(-75.3553390503 1.06677633307e-14 48.0433349609)
(-75.3553390503 -10 48.0433349609)
(-118.02696228 3.71189954519e-16 1.67169094086)
(-118.02696228 -10 1.67169094086)
(-116.363044739 7.39160760323e-15 33.2888412476)
(-116.363044739 -10 33.2888412476)
(-88.3202438354 8.25275381345e-15 37.167098999)
(-88.3202438354 -10 37.167098999)
(-49.8359794617 2.09224274224e-15 9.42262363434)
(-49.8359794617 -10 9.42262363434)
(-50.0077400208 3.04946948786e-16 1.37335896492)
(-50.0077400208 -10 1.37335896492)
(-52.0960464478 -2.24993788359e-16 -1.01328194141)
(-52.0960464478 -10 -1.01328194141)
(36.6335983276 2.09267727015e-15 9.42458057404)
(36.6335983276 -10 9.42458057404)
(38.2213630676 1.58435172855e-15 7.13528585434)
(38.2213630676 -10 7.13528585434)
(72.3589553833 2.9121735998e-15 13.1152639389)
(72.3589553833 -10 13.1152639389)
(-87.4252624512 2.82090664677e-15 12.7042341232)
(-87.4252624512 -10 12.7042341232)
(-75.3113174438 9.57759296405e-15 43.133644104)
(-75.3113174438 -10 43.133644104)
(26.9666881561 -10 13.1646280289)
(26.9666881561 2.92313462966e-15 13.1646280289)
(70.0463562012 -10 7.63459777832)
(70.0463562012 1.69522124745e-15 7.63459777832)
(-113.345375061 -2.07226901713e-16 -0.933266997337)
(-113.345375061 -10 -0.933266997337)
(-118.325294495 4.08077180581e-15 18.378162384)
(-118.325294495 -10 18.378162384)
(-112.783119202 7.98778327282e-15 35.973777771)
(-112.783119202 -10 35.973777771)
(-108.904846191 8.25275381345e-15 37.167098999)
(-108.904846191 -10 37.167098999)
(-88.6185760498 4.21198864429e-15 18.9691104889)
(-88.6185760498 -10 18.9691104889)
(-82.0553741455 2.3572126476e-15 10.6159420013)
(-82.0553741455 -10 10.6159420013)
(-53.1175994873 2.3572126476e-15 10.6159420013)
(-53.1175994873 -10 10.6159420013)
)


// edges:

74
(
(36 0)
(0 1)
(1 37)
(38 1)
(0 39)
(39 28)
(29 38)
(28 30)
(31 29)
(2 31)
(3 2)
(30 3)
(3 4)
(4 5)
(5 2)
(4 6)
(6 7)
(7 5)
(6 8)
(8 9)
(9 7)
(40 9)
(8 41)
(41 32)
(33 40)
(32 10)
(10 11)
(11 33)
(10 12)
(12 13)
(13 11)
(12 14)
(14 15)
(15 13)
(14 36)
(37 15)
(16 42)
(17 16)
(43 17)
(44 16)
(17 45)
(18 44)
(19 18)
(45 19)
(46 18)
(19 47)
(48 46)
(47 49)
(20 48)
(21 20)
(49 21)
(50 20)
(21 51)
(34 50)
(51 35)
(52 34)
(35 53)
(54 52)
(53 55)
(22 54)
(23 22)
(55 23)
(24 22)
(25 24)
(23 25)
(26 24)
(27 26)
(25 27)
(42 26)
(27 43)
(28 29)
(30 31)
(32 33)
(35 34)
)

// * * * * * * * * * * * * * * * * * * * * * * * * * * * * * * * * * * * * * //


// ************************************************************************* //
