/*--------------------------------*- C++ -*----------------------------------*\
| =========                 |                                                 |
| \\      /  F ield         | OpenFOAM: The Open Source CFD Toolbox           |
|  \\    /   O peration     | Version:  2006                                  |
|   \\  /    A nd           | Website:  www.openfoam.com                      |
|    \\/     M anipulation  |                                                 |
\*---------------------------------------------------------------------------*/
FoamFile
{
    version     2.0;
    format      ascii;
    class       featureEdgeMesh;
    location    "constant/triSurface";
    object      camion.eMesh;
}
// * * * * * * * * * * * * * * * * * * * * * * * * * * * * * * * * * * * * * //


// points:

38
(
(4.88779592514 4.27329397202 1.7840000391)
(4.88779592514 4.27329397202 0)
(4.88779592514 1.38000297546 0)
(4.88779592514 1.38000297546 1.7840000391)
(14.1676492691 0.815863013268 0)
(14.1676492691 0.815863013268 1.7840000391)
(14.6979942322 0.324703007936 0)
(14.6979942322 0.324703007936 1.7840000391)
(17.1558628082 0.324703007936 1.7840000391)
(17.1558628082 0.324703007936 0)
(17.4802131653 4.27329397202 0)
(17.4802131653 4.27329397202 1.7840000391)
(0.58137100935 0.342729002237 1.7840000391)
(0.58137100935 0.342729002237 0)
(0.716704010963 3.50440406799 0)
(0.716704010963 3.50440406799 1.7840000391)
(3.12504911423 3.50440406799 0)
(3.12504911423 3.50440406799 1.7840000391)
(6.12568616867 0.928080022335 0)
(6.12568616867 0.928080022335 1.7840000391)
(6.12568616867 0.342729002237 0)
(6.12568616867 0.342729002237 1.7840000391)
(14.1676492691 1.38000297546 0)
(14.1676492691 1.38000297546 1.7840000391)
(3.2126019001 1.12211000919 1.7840000391)
(3.2126019001 1.12211000919 0)
(17.4524116516 0.825129985809 0)
(17.4524116516 0.825129985809 1.7840000391)
(17.4802131653 1.39969396591 0)
(17.4802131653 1.39969396591 1.7840000391)
(0.391849011183 0.67685598135 0)
(0.391849011183 0.67685598135 1.7840000391)
(0.391849011183 2.20594096184 0)
(0.391849011183 2.20594096184 1.7840000391)
(3.12504911423 1.62627804279 0)
(3.12504911423 1.62627804279 1.7840000391)
(3.77658104897 0.928080022335 0)
(3.77658104897 0.928080022335 1.7840000391)
)


// edges:

51
(
(0 1)
(1 2)
(2 3)
(3 0)
(2 22)
(23 3)
(22 4)
(4 5)
(5 23)
(4 6)
(6 7)
(7 5)
(8 7)
(9 8)
(6 9)
(9 26)
(27 8)
(26 28)
(29 27)
(28 10)
(10 11)
(11 29)
(10 1)
(0 11)
(13 12)
(30 13)
(12 31)
(32 30)
(31 33)
(14 32)
(15 14)
(33 15)
(16 14)
(17 16)
(15 17)
(34 16)
(17 35)
(35 24)
(25 34)
(36 25)
(24 37)
(18 36)
(19 18)
(37 19)
(20 18)
(21 20)
(19 21)
(21 12)
(13 20)
(22 23)
(24 25)
)

// * * * * * * * * * * * * * * * * * * * * * * * * * * * * * * * * * * * * * //


// ************************************************************************* //
