/*--------------------------------*- C++ -*----------------------------------*\
| =========                 |                                                 |
| \\      /  F ield         | OpenFOAM: The Open Source CFD Toolbox           |
|  \\    /   O peration     | Version:  2006                                  |
|   \\  /    A nd           | Website:  www.openfoam.com                      |
|    \\/     M anipulation  |                                                 |
\*---------------------------------------------------------------------------*/
FoamFile
{
    version     2.0;
    format      ascii;
    class       featureEdgeMesh;
    location    "constant/triSurface";
    object      sx4.eMesh;
}
// * * * * * * * * * * * * * * * * * * * * * * * * * * * * * * * * * * * * * //


// points:

66
(
(31.0910758972 0.413215994835 8.5938501358)
(31.0910758972 0.413215994835 -1)
(31.137178421 0.785148978233 -1)
(31.137178421 0.785148978233 8.5938501358)
(34.7648200989 1.66059994698 -1)
(34.7648200989 1.66059994698 8.5938501358)
(35.1382980347 1.12009000778 -1)
(35.1382980347 1.12009000778 8.5938501358)
(35.2303886414 0.786266028881 -1)
(35.2303886414 0.786266028881 8.5938501358)
(35.2678985596 0.471679985523 -1)
(35.2678985596 0.471679985523 8.5938501358)
(34.8898391724 0.381963014603 -1)
(34.8898391724 0.381963014603 8.5938501358)
(34.7725791931 1.5933599472 -1)
(34.7725791931 1.5933599472 8.5938501358)
(35.1440505981 0.816963016987 -1)
(35.1440505981 0.816963016987 8.5938501358)
(34.8300590515 0.48443800211 -1)
(34.8300590515 0.48443800211 8.5938501358)
(31.1022071838 0.611814975739 -1)
(31.1022071838 0.611814975739 8.5938501358)
(31.1867828369 0.821524977684 -1)
(31.1867828369 0.821524977684 8.5938501358)
(31.2389678955 0.911077022552 -1)
(31.2389678955 0.911077022552 8.5938501358)
(31.3697147369 1.004150033 -1)
(31.3697147369 1.004150033 8.5938501358)
(32.0909690857 1.19305002689 8.5938501358)
(32.0909690857 1.19305002689 -1)
(32.3113517761 1.27319002151 -1)
(32.3113517761 1.27319002151 8.5938501358)
(32.769241333 1.55692994595 -1)
(32.769241333 1.55692994595 8.5938501358)
(33.0439987183 1.65709996223 -1)
(33.0439987183 1.65709996223 8.5938501358)
(33.4761810303 1.72007000446 -1)
(33.4761810303 1.72007000446 8.5938501358)
(33.9913597107 1.73152005672 8.5938501358)
(33.9913597107 1.73152005672 -1)
(34.6496505737 1.67999994755 -1)
(34.6496505737 1.67999994755 8.5938501358)
(34.9809799194 1.34839999676 8.5938501358)
(34.9809799194 1.34839999676 -1)
(35.1095199585 1.03375995159 8.5938501358)
(35.1095199585 1.03375995159 -1)
(35.1738891602 0.431389987469 -1)
(35.1738891602 0.431389987469 8.5938501358)
(34.6293792725 0.535674989223 -1)
(34.6293792725 0.535674989223 8.5938501358)
(34.4372406006 0.531404972076 -1)
(34.4372406006 0.531404972076 8.5938501358)
(34.2069511414 0.412205010653 -1)
(34.2069511414 0.412205010653 8.5938501358)
(33.8093414307 0.419315993786 -1)
(33.8093414307 0.419315993786 8.5938501358)
(33.5960884094 0.441740006208 8.5938501358)
(33.5960884094 0.441740006208 -1)
(33.0837211609 0.433200001717 8.5938501358)
(33.0837211609 0.433200001717 -1)
(32.4051895142 0.417439997196 8.5938501358)
(32.4051895142 0.417439997196 -1)
(32.1246986389 0.343024998903 -1)
(32.1246986389 0.343024998903 8.5938501358)
(31.5584449768 0.332518011332 -1)
(31.5584449768 0.332518011332 8.5938501358)
)


// edges:

76
(
(1 0)
(20 1)
(0 21)
(2 20)
(3 2)
(21 3)
(22 2)
(3 23)
(24 22)
(23 25)
(26 24)
(25 27)
(27 28)
(29 26)
(30 29)
(28 31)
(32 30)
(31 33)
(34 32)
(33 35)
(36 34)
(35 37)
(37 38)
(39 36)
(40 39)
(38 41)
(4 40)
(5 4)
(41 5)
(14 4)
(5 15)
(15 42)
(43 14)
(6 43)
(7 6)
(42 7)
(7 44)
(45 6)
(16 45)
(44 17)
(8 16)
(9 8)
(17 9)
(10 8)
(11 10)
(9 11)
(46 10)
(11 47)
(12 46)
(13 12)
(47 13)
(18 12)
(13 19)
(48 18)
(19 49)
(50 48)
(49 51)
(52 50)
(51 53)
(54 52)
(53 55)
(55 56)
(57 54)
(56 58)
(59 57)
(58 60)
(61 59)
(62 61)
(60 63)
(64 62)
(63 65)
(1 64)
(65 0)
(15 14)
(17 16)
(19 18)
)

// * * * * * * * * * * * * * * * * * * * * * * * * * * * * * * * * * * * * * //


// ************************************************************************* //
