/*--------------------------------*- C++ -*----------------------------------*\
| =========                 |                                                 |
| \\      /  F ield         | OpenFOAM: The Open Source CFD Toolbox           |
|  \\    /   O peration     | Version:  2006                                  |
|   \\  /    A nd           | Website:  www.openfoam.com                      |
|    \\/     M anipulation  |                                                 |
\*---------------------------------------------------------------------------*/
FoamFile
{
    version     2.0;
    format      ascii;
    class       featureEdgeMesh;
    location    "constant/triSurface";
    object      sx4.eMesh;
}
// * * * * * * * * * * * * * * * * * * * * * * * * * * * * * * * * * * * * * //


// points:

66
(
(0.0910760015249 0.413215994835 9.59385299683)
(0.0910760015249 0.413215994835 0)
(0.137179002166 0.785148978233 0)
(0.137179002166 0.785148978233 9.59385299683)
(3.76482200623 1.66060197353 0)
(3.76482200623 1.66060197353 9.59385299683)
(4.13829898834 1.12009096146 0)
(4.13829898834 1.12009096146 9.59385299683)
(4.23038816452 0.786266028881 0)
(4.23038816452 0.786266028881 9.59385299683)
(4.26789808273 0.471679985523 0)
(4.26789808273 0.471679985523 9.59385299683)
(3.88983607292 0.381963014603 0)
(3.88983607292 0.381963014603 9.59385299683)
(3.77258110046 1.59336197376 0)
(3.77258110046 1.59336197376 9.59385299683)
(4.14405298233 0.816963016987 0)
(4.14405298233 0.816963016987 9.59385299683)
(3.83005905151 0.48443800211 0)
(3.83005905151 0.48443800211 9.59385299683)
(0.102206997573 0.611814975739 0)
(0.102206997573 0.611814975739 9.59385299683)
(0.186782002449 0.821524977684 0)
(0.186782002449 0.821524977684 9.59385299683)
(0.238967999816 0.911077022552 0)
(0.238967999816 0.911077022552 9.59385299683)
(0.369715005159 1.00415098667 0)
(0.369715005159 1.00415098667 9.59385299683)
(1.09096705914 1.19305098057 9.59385299683)
(1.09096705914 1.19305098057 0)
(1.31134998798 1.27319002151 0)
(1.31134998798 1.27319002151 9.59385299683)
(1.76923704147 1.5569280386 0)
(1.76923704147 1.5569280386 9.59385299683)
(2.04399991035 1.65710198879 0)
(2.04399991035 1.65710198879 9.59385299683)
(2.47617888451 1.72006797791 0)
(2.47617888451 1.72006797791 9.59385299683)
(2.99135899544 1.73151600361 9.59385299683)
(2.99135899544 1.73151600361 0)
(3.64964604378 1.6799980402 0)
(3.64964604378 1.6799980402 9.59385299683)
(3.98097801208 1.34839701653 9.59385299683)
(3.98097801208 1.34839701653 0)
(4.1095199585 1.03375697136 9.59385299683)
(4.1095199585 1.03375697136 0)
(4.17388916016 0.431389987469 0)
(4.17388916016 0.431389987469 9.59385299683)
(3.62937903404 0.535674989223 0)
(3.62937903404 0.535674989223 9.59385299683)
(3.43723893166 0.531404972076 0)
(3.43723893166 0.531404972076 9.59385299683)
(3.20694708824 0.412205010653 0)
(3.20694708824 0.412205010653 9.59385299683)
(2.80934095383 0.419315993786 0)
(2.80934095383 0.419315993786 9.59385299683)
(2.5960919857 0.441740006208 9.59385299683)
(2.5960919857 0.441740006208 0)
(2.08371901512 0.433200001717 9.59385299683)
(2.08371901512 0.433200001717 0)
(1.40518701077 0.417439997196 9.59385299683)
(1.40518701077 0.417439997196 0)
(1.12469899654 0.343024998903 0)
(1.12469899654 0.343024998903 9.59385299683)
(0.558444976807 0.332518011332 0)
(0.558444976807 0.332518011332 9.59385299683)
)


// edges:

76
(
(1 0)
(20 1)
(0 21)
(2 20)
(3 2)
(21 3)
(22 2)
(3 23)
(24 22)
(23 25)
(26 24)
(25 27)
(27 28)
(29 26)
(30 29)
(28 31)
(32 30)
(31 33)
(34 32)
(33 35)
(36 34)
(35 37)
(37 38)
(39 36)
(40 39)
(38 41)
(4 40)
(5 4)
(41 5)
(14 4)
(5 15)
(15 42)
(43 14)
(6 43)
(7 6)
(42 7)
(7 44)
(45 6)
(16 45)
(44 17)
(8 16)
(9 8)
(17 9)
(10 8)
(11 10)
(9 11)
(46 10)
(11 47)
(12 46)
(13 12)
(47 13)
(18 12)
(13 19)
(48 18)
(19 49)
(50 48)
(49 51)
(52 50)
(51 53)
(54 52)
(53 55)
(55 56)
(57 54)
(56 58)
(59 57)
(58 60)
(61 59)
(62 61)
(60 63)
(64 62)
(63 65)
(1 64)
(65 0)
(15 14)
(17 16)
(19 18)
)

// * * * * * * * * * * * * * * * * * * * * * * * * * * * * * * * * * * * * * //


// ************************************************************************* //
