/*--------------------------------*- C++ -*----------------------------------*\
| =========                 |                                                 |
| \\      /  F ield         | OpenFOAM: The Open Source CFD Toolbox           |
|  \\    /   O peration     | Version:  2006                                  |
|   \\  /    A nd           | Website:  www.openfoam.com                      |
|    \\/     M anipulation  |                                                 |
\*---------------------------------------------------------------------------*/
FoamFile
{
    version     2.0;
    format      ascii;
    class       extendedFeatureEdgeMesh;
    location    "constant/extendedFeatureEdgeMesh";
    object      camion.extendedFeatureEdgeMesh;
}
// * * * * * * * * * * * * * * * * * * * * * * * * * * * * * * * * * * * * * //

// points

38
(
(4.88779592514 4.27329397202 1.7840000391)
(4.88779592514 4.27329397202 0)
(4.88779592514 1.38000297546 0)
(4.88779592514 1.38000297546 1.7840000391)
(14.1676492691 0.815863013268 0)
(14.1676492691 0.815863013268 1.7840000391)
(14.6979942322 0.324703007936 0)
(14.6979942322 0.324703007936 1.7840000391)
(17.1558628082 0.324703007936 1.7840000391)
(17.1558628082 0.324703007936 0)
(17.4802131653 4.27329397202 0)
(17.4802131653 4.27329397202 1.7840000391)
(0.58137100935 0.342729002237 1.7840000391)
(0.58137100935 0.342729002237 0)
(0.716704010963 3.50440406799 0)
(0.716704010963 3.50440406799 1.7840000391)
(3.12504911423 3.50440406799 0)
(3.12504911423 3.50440406799 1.7840000391)
(6.12568616867 0.928080022335 0)
(6.12568616867 0.928080022335 1.7840000391)
(6.12568616867 0.342729002237 0)
(6.12568616867 0.342729002237 1.7840000391)
(14.1676492691 1.38000297546 0)
(14.1676492691 1.38000297546 1.7840000391)
(3.2126019001 1.12211000919 1.7840000391)
(3.2126019001 1.12211000919 0)
(17.4524116516 0.825129985809 0)
(17.4524116516 0.825129985809 1.7840000391)
(17.4802131653 1.39969396591 0)
(17.4802131653 1.39969396591 1.7840000391)
(0.391849011183 0.67685598135 0)
(0.391849011183 0.67685598135 1.7840000391)
(0.391849011183 2.20594096184 0)
(0.391849011183 2.20594096184 1.7840000391)
(3.12504911423 1.62627804279 0)
(3.12504911423 1.62627804279 1.7840000391)
(3.77658104897 0.928080022335 0)
(3.77658104897 0.928080022335 1.7840000391)
)

// edges

51
(
(0 1)
(1 2)
(2 3)
(3 0)
(2 22)
(23 3)
(22 4)
(4 5)
(5 23)
(4 6)
(6 7)
(7 5)
(8 7)
(9 8)
(6 9)
(9 26)
(27 8)
(26 28)
(29 27)
(28 10)
(10 11)
(11 29)
(10 1)
(0 11)
(13 12)
(30 13)
(12 31)
(32 30)
(31 33)
(14 32)
(15 14)
(33 15)
(16 14)
(17 16)
(15 17)
(34 16)
(17 35)
(35 24)
(25 34)
(36 25)
(24 37)
(18 36)
(19 18)
(37 19)
(20 18)
(21 20)
(19 21)
(21 12)
(13 20)
(22 23)
(24 25)
)

// concaveStart mixedStart nonFeatureStart
22 22 26
// internalStart flatStart openStart multipleStart
49 51 51 51
// normals

66
(
(-1 0 -0)
(-0 1 0)
(0 0 -1)
(-1 0 0)
(0 -1 0)
(0 0 1)
(-0 -1 -0)
(-1 0 -0)
(0 0 -1)
(-1 0 0)
(-0.679482403699 -0.733691803868 -0)
(-0 0 1)
(-0.679482403699 -0.733691803868 -0)
(0 -1 0)
(0 0 1)
(0 -1 -0)
(0.860291893154 -0.509801783612 0)
(0 0 -1)
(0 0 -1)
(0.860291893154 -0.509801783612 0)
(0 0 1)
(0.9988313935 -0.0483306047785 0)
(0.9988313935 -0.0483306047785 0)
(1 0 0)
(0 0 -1)
(1 0 0)
(0 1 0)
(0 0 1)
(0 0 -1)
(-0 0 1)
(-0.869817349017 -0.493373873801 -0)
(0 -1 0)
(0 0 -1)
(-0.869817349017 -0.493373873801 -0)
(-0 0 1)
(-1 0 0)
(0 0 -1)
(-1 -0 -0)
(0 0 1)
(-0.970100432122 0.24270383515 0)
(0 -0 -1)
(-0.970100432122 0.24270383515 0)
(0 1 0)
(0 0 1)
(0 0 -1)
(0 1 0)
(1 0 0)
(-0 0 1)
(1 -0 0)
(0.985254151714 0.171097213681 0)
(0 0 1)
(0.985254151714 0.171097213681 0)
(0 0 -1)
(0.325322904865 0.945602986232 0)
(0 -0 -1)
(0.325322904865 0.945602986232 0)
(0 0 1)
(0 1 0)
(0 0 -1)
(0 1 0)
(1 0 0)
(-0 0 1)
(1 -0 0)
(-0 -1 -0)
(0 0 1)
(0 -0 -1)
)

// normal volume types

66
(
0
0
0
0
0
0
0
0
0
0
0
0
0
0
0
0
0
0
0
0
0
0
0
0
0
0
0
0
0
0
0
0
0
0
0
0
0
0
0
0
0
0
0
0
0
0
0
0
0
0
0
0
0
0
0
0
0
0
0
0
0
0
0
0
0
0
)

// normalDirections

51
(
2(1 -1)
2(1 -1)
2(1 -1)
2(1 -1)
2(1 -1)
2(1 -1)
2(1 -1)
2(1 -1)
2(1 -1)
2(1 -1)
2(1 -1)
2(1 -1)
2(1 -1)
2(1 -1)
2(1 -1)
2(1 -1)
2(1 -1)
2(1 -1)
2(1 -1)
2(1 -1)
2(1 -1)
2(1 -1)
2(1 -1)
2(1 -1)
2(1 -1)
2(1 -1)
2(1 -1)
2(1 -1)
2(1 -1)
2(1 -1)
2(1 -1)
2(1 -1)
2(1 -1)
2(1 -1)
2(1 -1)
2(1 -1)
2(1 -1)
2(1 -1)
2(1 -1)
2(1 -1)
2(1 -1)
2(1 -1)
2(1 -1)
2(1 -1)
2(1 -1)
2(1 -1)
2(1 -1)
2(1 -1)
2(1 -1)
2(1 -1)
2(1 -1)
)

// edgeNormals

51
(
2(0 1)
2(0 2)
2(3 4)
2(3 5)
2(4 2)
2(6 5)
2(7 8)
2(9 10)
2(9 11)
2(10 8)
2(12 13)
2(12 11)
2(13 14)
2(15 16)
2(15 17)
2(16 18)
2(19 20)
2(21 18)
2(22 20)
2(23 24)
2(25 26)
2(25 27)
2(26 28)
2(1 29)
2(30 31)
2(30 32)
2(33 34)
2(35 36)
2(37 38)
2(39 40)
2(41 42)
2(41 43)
2(42 44)
2(45 46)
2(45 47)
2(46 44)
2(48 47)
2(49 50)
2(51 52)
2(53 54)
2(55 56)
2(57 58)
2(59 60)
2(59 61)
2(60 58)
2(62 63)
2(62 61)
2(63 64)
2(31 65)
2(6 7)
2(51 53)
)

// featurePointNormals

26
(
3(0 1 5)
3(0 1 2)
3(0 2 4)
3(3 4 5)
3(7 8 10)
3(9 10 11)
3(10 8 13)
3(12 13 11)
3(13 14 16)
3(15 16 17)
3(23 24 26)
3(25 26 27)
3(30 31 34)
3(30 31 32)
3(39 40 42)
3(41 42 43)
3(42 44 46)
3(45 46 47)
3(57 58 60)
3(59 60 61)
3(60 58 63)
3(62 63 61)
3(4 2 7)
3(6 5 9)
3(49 50 55)
3(51 52 53)
)

// featurePointEdges

26
(
3(3 23 0)
3(0 22 1)
3(2 4 1)
3(2 5 3)
3(7 9 6)
3(7 11 8)
3(10 14 9)
3(10 12 11)
3(13 16 12)
3(13 15 14)
3(20 22 19)
3(20 23 21)
3(26 47 24)
3(24 48 25)
3(30 32 29)
3(30 34 31)
3(33 35 32)
3(33 36 34)
3(42 44 41)
3(42 46 43)
3(45 48 44)
3(45 47 46)
3(49 6 4)
3(49 8 5)
3(50 40 37)
3(50 39 38)
)

// regionEdges
0()


// ************************************************************************* //
