/*--------------------------------*- C++ -*----------------------------------*\
| =========                 |                                                 |
| \\      /  F ield         | OpenFOAM: The Open Source CFD Toolbox           |
|  \\    /   O peration     | Version:  2006                                  |
|   \\  /    A nd           | Website:  www.openfoam.com                      |
|    \\/     M anipulation  |                                                 |
\*---------------------------------------------------------------------------*/
FoamFile
{
    version     2.0;
    format      ascii;
    class       extendedFeatureEdgeMesh;
    location    "constant/extendedFeatureEdgeMesh";
    object      camion.extendedFeatureEdgeMesh;
}
// * * * * * * * * * * * * * * * * * * * * * * * * * * * * * * * * * * * * * //

// points

56
(
(-75.311340332 2.94783241633e-15 13.2758569717)
(-75.311340332 -10 13.2758569717)
(38.2213630676 -10 3.85366511345)
(38.2213630676 8.55685547629e-16 3.85366511345)
(41.5143470764 9.43116725196e-17 0.424742013216)
(41.5143470764 -10 0.424742013216)
(67.1174850464 6.45468156391e-17 0.29069301486)
(67.1174850464 -10 0.29069301486)
(69.9324798584 6.00310249169e-16 2.70355701447)
(69.9324798584 -10 2.70355701447)
(72.7765731812 2.91207259112e-15 13.1148090363)
(72.7765731812 -10 13.1148090363)
(72.7766494751 1.06374666562e-14 47.9068908691)
(72.7766494751 -10 47.9068908691)
(-75.3553390503 1.06677633307e-14 48.0433349609)
(-75.3553390503 -10 48.0433349609)
(-118.02696228 3.71189954519e-16 1.67169094086)
(-118.02696228 -10 1.67169094086)
(-116.363044739 7.39160760323e-15 33.2888412476)
(-116.363044739 -10 33.2888412476)
(-88.3202438354 8.25275381345e-15 37.167098999)
(-88.3202438354 -10 37.167098999)
(-49.8359794617 2.09224274224e-15 9.42262363434)
(-49.8359794617 -10 9.42262363434)
(-50.0077400208 3.04946948786e-16 1.37335896492)
(-50.0077400208 -10 1.37335896492)
(-52.0960464478 -2.24993788359e-16 -1.01328194141)
(-52.0960464478 -10 -1.01328194141)
(36.6335983276 2.09267727015e-15 9.42458057404)
(36.6335983276 -10 9.42458057404)
(38.2213630676 1.58435172855e-15 7.13528585434)
(38.2213630676 -10 7.13528585434)
(72.3589553833 2.9121735998e-15 13.1152639389)
(72.3589553833 -10 13.1152639389)
(-87.4252624512 2.82090664677e-15 12.7042341232)
(-87.4252624512 -10 12.7042341232)
(-75.3113174438 9.57759296405e-15 43.133644104)
(-75.3113174438 -10 43.133644104)
(26.9666881561 -10 13.1646280289)
(26.9666881561 2.92313462966e-15 13.1646280289)
(70.0463562012 -10 7.63459777832)
(70.0463562012 1.69522124745e-15 7.63459777832)
(-113.345375061 -2.07226901713e-16 -0.933266997337)
(-113.345375061 -10 -0.933266997337)
(-118.325294495 4.08077180581e-15 18.378162384)
(-118.325294495 -10 18.378162384)
(-112.783119202 7.98778327282e-15 35.973777771)
(-112.783119202 -10 35.973777771)
(-108.904846191 8.25275381345e-15 37.167098999)
(-108.904846191 -10 37.167098999)
(-88.6185760498 4.21198864429e-15 18.9691104889)
(-88.6185760498 -10 18.9691104889)
(-82.0553741455 2.3572126476e-15 10.6159420013)
(-82.0553741455 -10 10.6159420013)
(-53.1175994873 2.3572126476e-15 10.6159420013)
(-53.1175994873 -10 10.6159420013)
)

// edges

74
(
(36 0)
(0 1)
(1 37)
(38 1)
(0 39)
(39 28)
(29 38)
(28 30)
(31 29)
(2 31)
(3 2)
(30 3)
(3 4)
(4 5)
(5 2)
(4 6)
(6 7)
(7 5)
(6 8)
(8 9)
(9 7)
(40 9)
(8 41)
(41 32)
(33 40)
(32 10)
(10 11)
(11 33)
(10 12)
(12 13)
(13 11)
(12 14)
(14 15)
(15 13)
(14 36)
(37 15)
(16 42)
(17 16)
(43 17)
(44 16)
(17 45)
(18 44)
(19 18)
(45 19)
(46 18)
(19 47)
(48 46)
(47 49)
(20 48)
(21 20)
(49 21)
(50 20)
(21 51)
(34 50)
(51 35)
(52 34)
(35 53)
(54 52)
(53 55)
(22 54)
(23 22)
(55 23)
(24 22)
(25 24)
(23 25)
(26 24)
(27 26)
(25 27)
(42 26)
(27 43)
(28 29)
(30 31)
(32 33)
(35 34)
)

// concaveStart mixedStart nonFeatureStart
28 28 36
// internalStart flatStart openStart multipleStart
70 74 74 74
// normals

96
(
(-1 0 7.66573339556e-07)
(0 1 -2.22044604925e-16)
(-1 0 7.66573339556e-07)
(-0.00108751487236 -0 -0.999999408656)
(0 -1 0)
(-0.00108751487236 0 -0.999999408656)
(-0.360827774348 -0 -0.932632466333)
(0 1 -2.22044604925e-16)
(-0.360827774348 0 -0.932632466333)
(0 -1 0)
(-0.821710058235 -0 -0.569905764311)
(0 1 -2.22044604925e-16)
(-0.821710058235 0 -0.569905764311)
(0 -1 0)
(-1 0 0)
(0 -1 0)
(-1 0 0)
(-0.721259332421 -0 -0.692665125004)
(0 1 -2.22044604925e-16)
(-0.721259332421 0 -0.692665125004)
(-0.00523557547029 -0 -0.999986294281)
(0 1 -2.22044604925e-16)
(-0.00523557547029 0 -0.999986294281)
(0.650793130989 0 -0.759255095905)
(0 -1 0)
(0 1 -2.22044604925e-16)
(0.650793130989 0 -0.759255095905)
(0.999733445408 0 -0.023087618611)
(-0 -1 0)
(0.999733445408 0 -0.023087618611)
(0.921337479251 0 -0.388763744872)
(0 1 -2.22044604925e-16)
(0.921337479251 0 -0.388763744872)
(-0 -1 0)
(-0.00108927919593 -0 -0.999999406735)
(0 1 -2.22044604925e-16)
(-0.00108927919593 0 -0.999999406735)
(0.999999999998 0 -2.19285369811e-06)
(0 -1 0)
(0.999999999998 0 -2.19285369811e-06)
(0.000921097699924 0 0.999999575789)
(0 1 -2.22044604925e-16)
(0.000921097699924 0 0.999999575789)
(-0.999959805438 -0 -0.00896590809867)
(0 -1 0)
(0 1 -2.22044604925e-16)
(-0.999959805438 0 -0.00896590809867)
(0 -1 0)
(-0.486224210543 0 -0.873834090135)
(0 1 -2.22044604925e-16)
(-0.486224210543 -0 -0.873834090135)
(-0.999840596816 0 -0.0178544380401)
(0 -1 0)
(-0.999840596816 -0 -0.0178544380401)
(-0.99145155767 0 0.130475318716)
(0 1 -2.22044604925e-16)
(-0.99145155767 0 0.130475318716)
(-0.599998908844 0 0.800000818366)
(0 -1 0)
(0 1 -2.22044604925e-16)
(-0.599998908844 0 0.800000818366)
(0 -1 0)
(-0.294087302197 0 0.955778561533)
(-0.294087302197 0 0.955778561533)
(0 0 1)
(0 1 -2.22044604925e-16)
(0 0 1)
(0.999865650515 0 -0.0163914892797)
(0 -1 0)
(0.999865650515 0 -0.0163914892797)
(0.982338456478 0 0.187112685096)
(0 1 -2.22044604925e-16)
(0.982338456478 0 0.187112685096)
(0 -1 0)
(0.362446596634 0 0.932004541077)
(0 1 -2.22044604925e-16)
(0.362446596634 0 0.932004541077)
(0 -1 0)
(0 0 1)
(0 1 -2.22044604925e-16)
(0 0 1)
(0 -1 0)
(0.341743567451 0 0.939793240083)
(0 1 -2.22044604925e-16)
(0.341743567451 0 0.939793240083)
(0.999772408417 0 -0.0213338081026)
(0 -1 0)
(0.999772408417 0 -0.0213338081026)
(0.752577376985 0 -0.658503828122)
(0 1 -2.22044604925e-16)
(0.752577376985 0 -0.658503828122)
(-0.00130637963893 0 -0.999999146686)
(-0 -1 0)
(0 1 -2.22044604925e-16)
(-0.00130637963893 -0 -0.999999146686)
(0 -1 0)
)

// normal volume types

96
(
0
0
0
0
0
0
0
0
0
0
0
0
0
0
0
0
0
0
0
0
0
0
0
0
0
0
0
0
0
0
0
0
0
0
0
0
0
0
0
0
0
0
0
0
0
0
0
0
0
0
0
0
0
0
0
0
0
0
0
0
0
0
0
0
0
0
0
0
0
0
0
0
0
0
0
0
0
0
0
0
0
0
0
0
0
0
0
0
0
0
0
0
0
0
0
0
)

// normalDirections

74
(
2(1 -1)
2(1 -1)
2(1 -1)
2(1 -1)
2(1 -1)
2(1 -1)
2(1 -1)
2(1 -1)
2(1 -1)
2(1 -1)
2(1 -1)
2(1 -1)
2(1 -1)
2(1 -1)
2(1 -1)
2(1 -1)
2(1 -1)
2(1 -1)
2(1 -1)
2(1 -1)
2(1 -1)
2(1 -1)
2(1 -1)
2(1 -1)
2(1 -1)
2(1 -1)
2(1 -1)
2(1 -1)
2(1 -1)
2(1 -1)
2(1 -1)
2(1 -1)
2(1 -1)
2(1 -1)
2(1 -1)
2(1 -1)
2(1 -1)
2(1 -1)
2(1 -1)
2(1 -1)
2(1 -1)
2(1 -1)
2(1 -1)
2(1 -1)
2(1 -1)
2(1 -1)
2(1 -1)
2(1 -1)
2(1 -1)
2(1 -1)
2(1 -1)
2(1 -1)
2(1 -1)
2(1 -1)
2(1 -1)
2(1 -1)
2(1 -1)
2(1 -1)
2(1 -1)
2(1 -1)
2(1 -1)
2(1 -1)
2(1 -1)
2(1 -1)
2(1 -1)
2(1 -1)
2(1 -1)
2(1 -1)
2(1 -1)
2(1 -1)
2(1 -1)
2(1 -1)
2(1 -1)
2(1 -1)
)

// edgeNormals

74
(
2(0 1)
2(2 3)
2(2 4)
2(3 4)
2(5 1)
2(6 7)
2(8 9)
2(10 11)
2(12 13)
2(14 15)
2(16 17)
2(16 18)
2(17 18)
2(19 20)
2(19 15)
2(20 21)
2(22 23)
2(22 24)
2(23 25)
2(26 27)
2(26 28)
2(27 28)
2(29 25)
2(30 31)
2(32 33)
2(34 35)
2(36 37)
2(36 38)
2(37 35)
2(39 40)
2(39 38)
2(40 41)
2(42 43)
2(42 44)
2(43 45)
2(46 47)
2(48 49)
2(50 51)
2(50 52)
2(51 49)
2(53 52)
2(54 55)
2(56 57)
2(56 58)
2(57 59)
2(60 61)
2(62 59)
2(63 61)
2(64 65)
2(66 67)
2(66 68)
2(67 65)
2(69 68)
2(70 71)
2(72 73)
2(74 75)
2(76 77)
2(78 79)
2(80 81)
2(82 83)
2(84 85)
2(84 86)
2(85 83)
2(87 88)
2(87 86)
2(88 89)
2(90 91)
2(90 92)
2(91 93)
2(94 95)
2(8 10)
2(12 14)
2(32 34)
2(72 74)
)

// featurePointNormals

36
(
3(0 1 3)
3(2 3 4)
3(14 15 17)
3(16 17 18)
3(17 18 20)
3(19 20 15)
3(20 21 23)
3(22 23 24)
3(23 25 27)
3(26 27 28)
3(34 35 37)
3(36 37 38)
3(37 35 40)
3(39 40 38)
3(40 41 43)
3(42 43 44)
3(48 49 51)
3(50 51 52)
3(54 55 57)
3(56 57 58)
3(64 65 67)
3(66 67 68)
3(82 83 85)
3(84 85 86)
3(85 83 88)
3(87 88 86)
3(88 89 91)
3(90 91 92)
3(6 7 10)
3(8 9 12)
3(10 11 16)
3(12 13 14)
3(30 31 34)
3(32 33 36)
3(70 71 74)
3(72 73 76)
)

// featurePointEdges

36
(
3(1 4 0)
3(1 3 2)
3(10 14 9)
3(10 12 11)
3(13 15 12)
3(13 17 14)
3(16 18 15)
3(16 20 17)
3(19 22 18)
3(19 21 20)
3(26 28 25)
3(26 30 27)
3(29 31 28)
3(29 33 30)
3(32 34 31)
3(32 35 33)
3(37 39 36)
3(37 40 38)
3(42 44 41)
3(42 45 43)
3(49 51 48)
3(49 52 50)
3(60 62 59)
3(60 64 61)
3(63 65 62)
3(63 67 64)
3(66 68 65)
3(66 69 67)
3(70 7 5)
3(70 8 6)
3(71 11 7)
3(71 9 8)
3(72 25 23)
3(72 27 24)
3(73 55 53)
3(73 56 54)
)

// regionEdges
0()


// ************************************************************************* //
