/*--------------------------------*- C++ -*----------------------------------*\
| =========                 |                                                 |
| \\      /  F ield         | OpenFOAM: The Open Source CFD Toolbox           |
|  \\    /   O peration     | Version:  2006                                  |
|   \\  /    A nd           | Website:  www.openfoam.com                      |
|    \\/     M anipulation  |                                                 |
\*---------------------------------------------------------------------------*/
FoamFile
{
    version     2.0;
    format      ascii;
    class       extendedFeatureEdgeMesh;
    location    "constant/extendedFeatureEdgeMesh";
    object      sx4.extendedFeatureEdgeMesh;
}
// * * * * * * * * * * * * * * * * * * * * * * * * * * * * * * * * * * * * * //

// points

66
(
(0.0910760015249 0.413215994835 9.59385299683)
(0.0910760015249 0.413215994835 0)
(0.137179002166 0.785148978233 0)
(0.137179002166 0.785148978233 9.59385299683)
(3.76482200623 1.66060197353 0)
(3.76482200623 1.66060197353 9.59385299683)
(4.13829898834 1.12009096146 0)
(4.13829898834 1.12009096146 9.59385299683)
(4.23038816452 0.786266028881 0)
(4.23038816452 0.786266028881 9.59385299683)
(4.26789808273 0.471679985523 0)
(4.26789808273 0.471679985523 9.59385299683)
(3.88983607292 0.381963014603 0)
(3.88983607292 0.381963014603 9.59385299683)
(3.77258110046 1.59336197376 0)
(3.77258110046 1.59336197376 9.59385299683)
(4.14405298233 0.816963016987 0)
(4.14405298233 0.816963016987 9.59385299683)
(3.83005905151 0.48443800211 0)
(3.83005905151 0.48443800211 9.59385299683)
(0.102206997573 0.611814975739 0)
(0.102206997573 0.611814975739 9.59385299683)
(0.186782002449 0.821524977684 0)
(0.186782002449 0.821524977684 9.59385299683)
(0.238967999816 0.911077022552 0)
(0.238967999816 0.911077022552 9.59385299683)
(0.369715005159 1.00415098667 0)
(0.369715005159 1.00415098667 9.59385299683)
(1.09096705914 1.19305098057 9.59385299683)
(1.09096705914 1.19305098057 0)
(1.31134998798 1.27319002151 0)
(1.31134998798 1.27319002151 9.59385299683)
(1.76923704147 1.5569280386 0)
(1.76923704147 1.5569280386 9.59385299683)
(2.04399991035 1.65710198879 0)
(2.04399991035 1.65710198879 9.59385299683)
(2.47617888451 1.72006797791 0)
(2.47617888451 1.72006797791 9.59385299683)
(2.99135899544 1.73151600361 9.59385299683)
(2.99135899544 1.73151600361 0)
(3.64964604378 1.6799980402 0)
(3.64964604378 1.6799980402 9.59385299683)
(3.98097801208 1.34839701653 9.59385299683)
(3.98097801208 1.34839701653 0)
(4.1095199585 1.03375697136 9.59385299683)
(4.1095199585 1.03375697136 0)
(4.17388916016 0.431389987469 0)
(4.17388916016 0.431389987469 9.59385299683)
(3.62937903404 0.535674989223 0)
(3.62937903404 0.535674989223 9.59385299683)
(3.43723893166 0.531404972076 0)
(3.43723893166 0.531404972076 9.59385299683)
(3.20694708824 0.412205010653 0)
(3.20694708824 0.412205010653 9.59385299683)
(2.80934095383 0.419315993786 0)
(2.80934095383 0.419315993786 9.59385299683)
(2.5960919857 0.441740006208 9.59385299683)
(2.5960919857 0.441740006208 0)
(2.08371901512 0.433200001717 9.59385299683)
(2.08371901512 0.433200001717 0)
(1.40518701077 0.417439997196 9.59385299683)
(1.40518701077 0.417439997196 0)
(1.12469899654 0.343024998903 0)
(1.12469899654 0.343024998903 9.59385299683)
(0.558444976807 0.332518011332 0)
(0.558444976807 0.332518011332 9.59385299683)
)

// edges

76
(
(1 0)
(20 1)
(0 21)
(2 20)
(3 2)
(21 3)
(22 2)
(3 23)
(24 22)
(23 25)
(26 24)
(25 27)
(27 28)
(29 26)
(30 29)
(28 31)
(32 30)
(31 33)
(34 32)
(33 35)
(36 34)
(35 37)
(37 38)
(39 36)
(40 39)
(38 41)
(4 40)
(5 4)
(41 5)
(14 4)
(5 15)
(15 42)
(43 14)
(6 43)
(7 6)
(42 7)
(7 44)
(45 6)
(16 45)
(44 17)
(8 16)
(9 8)
(17 9)
(10 8)
(11 10)
(9 11)
(46 10)
(11 47)
(12 46)
(13 12)
(47 13)
(18 12)
(13 19)
(48 18)
(19 49)
(50 48)
(49 51)
(52 50)
(51 53)
(54 52)
(53 55)
(55 56)
(57 54)
(56 58)
(59 57)
(58 60)
(61 59)
(62 61)
(60 63)
(64 62)
(63 65)
(1 64)
(65 0)
(15 14)
(17 16)
(19 18)
)

// concaveStart mixedStart nonFeatureStart
14 14 20
// internalStart flatStart openStart multipleStart
73 76 76 76
// normals

116
(
(-0.998433024152 0.0559597737909 0)
(-0.170146734694 -0.985418737732 -0)
(0 -0 -1)
(-0.998433024152 0.0559597737909 0)
(0 0 1)
(-0.980247347043 0.197775475262 0)
(0 -0 -1)
(-0.980247347043 0.197775475262 0)
(-0.591368589129 0.806401383798 0)
(-0 0 1)
(-0.591368589129 0.806401383798 0)
(-0.864000093227 0.503491647303 0)
(0 -0 -1)
(-0.864000093227 0.503491647303 0)
(-0 0 1)
(-0.579930568563 0.814665904311 0)
(-0.579930568563 0.814665904311 0)
(-0.253360203196 0.967372010881 0)
(-0 0 1)
(-0.253360203196 0.967372010881 0)
(0 0 -1)
(-0.341742287571 0.939793705494 0)
(0 0 -1)
(-0.341742287571 0.939793705494 0)
(-0 0 1)
(-0.526735887645 0.850029002251 0)
(0 0 -1)
(-0.526735887645 0.850029002251 0)
(-0 0 1)
(-0.342528686332 0.939507370402 0)
(0 0 -1)
(-0.342528686332 0.939507370402 0)
(-0 0 1)
(-0.144172122172 0.98955262578 0)
(0 0 -1)
(-0.144172122172 0.98955262578 0)
(-0 0 1)
(-0.0222159203003 0.999753195986 0)
(-0 0 1)
(-0.0222159203003 0.999753195986 0)
(0 0 -1)
(0.0780220692962 0.996951632078 0)
(0 0 -1)
(0.0780220692962 0.996951632078 0)
(0 0 1)
(0.166065442105 0.986114734166 0)
(-0 -0 -1)
(0.166065442105 0.986114734166 0)
(0.993407871392 0.114633333097 0)
(0 0 1)
(0.993407871392 0.114633333097 0)
(0.761668136291 0.64796732183 0)
(0 0 1)
(0.761668136291 0.64796732183 0)
(0 -0 -1)
(0.823434345075 0.567411560819 0)
(0 0 -1)
(0.823434345075 0.567411560819 0)
(0.948679892178 -0.31623798345 0)
(0 0 1)
(0.948679892178 -0.31623798345 0)
(0.987549840901 0.157306426243 0)
(0 -0 -1)
(0.987549840901 0.157306426243 0)
(0 0 1)
(0.335010001314 0.942214571645 0)
(0 0 -1)
(0.335010001314 0.942214571645 0)
(0.992966323161 0.118397132855 0)
(0 0 1)
(0 -0 -1)
(0.992966323161 0.118397132855 0)
(0.393923096603 -0.919143402284 0)
(0 0 1)
(0.393923096603 -0.919143402284 0)
(0.171430171475 -0.985196272987 0)
(0 0 -1)
(0.171430171475 -0.985196272987 0)
(-0.863779101345 -0.503870681902 -0)
(0 0 1)
(-0.863779101345 -0.503870681902 -0)
(-0.247381141389 -0.968918247782 -0)
(0 0 -1)
(-0.247381141389 -0.968918247782 -0)
(0 0 1)
(0.0222179703359 -0.99975315043 0)
(0 0 -1)
(0.0222179703359 -0.99975315043 0)
(0 0 1)
(0.459676911617 -0.888086221561 0)
(0 0 -1)
(0.459676911617 -0.888086221561 0)
(0 0 1)
(-0.0178816309632 -0.999840110855 -0)
(-0.0178816309632 -0.999840110855 -0)
(-0.1045775546 -0.994516734436 0)
(0 0 1)
(-0.1045775546 -0.994516734436 -0)
(0 0 -1)
(0.0166652399542 -0.999861125246 0)
(0 0 1)
(0.0166652399542 -0.999861125246 0)
(0 0 -1)
(0.023220356693 -0.999730371168 0)
(0 0 1)
(0.023220356693 -0.999730371168 0)
(0 0 -1)
(0.256434090065 -0.966561719422 0)
(0 0 -1)
(0.256434090065 -0.966561719422 0)
(0 0 1)
(0.0185520612796 -0.999827895701 0)
(0 -0 -1)
(0.0185520612796 -0.999827895701 0)
(0 0 1)
(-0.170146734694 -0.985418737732 -0)
)

// normal volume types

116
(
0
0
0
0
0
0
0
0
0
0
0
0
0
0
0
0
0
0
0
0
0
0
0
0
0
0
0
0
0
0
0
0
0
0
0
0
0
0
0
0
0
0
0
0
0
0
0
0
0
0
0
0
0
0
0
0
0
0
0
0
0
0
0
0
0
0
0
0
0
0
0
0
0
0
0
0
0
0
0
0
0
0
0
0
0
0
0
0
0
0
0
0
0
0
0
0
0
0
0
0
0
0
0
0
0
0
0
0
0
0
0
0
0
0
0
0
)

// normalDirections

76
(
2(1 -1)
2(1 -1)
2(1 -1)
2(1 -1)
2(1 -1)
2(1 -1)
2(1 -1)
2(1 -1)
2(1 -1)
2(1 -1)
2(1 -1)
2(1 -1)
2(1 -1)
2(1 -1)
2(1 -1)
2(1 -1)
2(1 -1)
2(1 -1)
2(1 -1)
2(1 -1)
2(1 -1)
2(1 -1)
2(1 -1)
2(1 -1)
2(1 -1)
2(1 -1)
2(1 -1)
2(1 -1)
2(1 -1)
2(1 -1)
2(1 -1)
2(1 -1)
2(1 -1)
2(1 -1)
2(1 -1)
2(1 -1)
2(1 -1)
2(1 -1)
2(1 -1)
2(1 -1)
2(1 -1)
2(1 -1)
2(1 -1)
2(1 -1)
2(1 -1)
2(1 -1)
2(1 -1)
2(1 -1)
2(1 -1)
2(1 -1)
2(1 -1)
2(1 -1)
2(1 -1)
2(1 -1)
2(1 -1)
2(1 -1)
2(1 -1)
2(1 -1)
2(1 -1)
2(1 -1)
2(1 -1)
2(1 -1)
2(1 -1)
2(1 -1)
2(1 -1)
2(1 -1)
2(1 -1)
2(1 -1)
2(1 -1)
2(1 -1)
2(1 -1)
2(1 -1)
2(1 -1)
2(1 -1)
2(1 -1)
2(1 -1)
)

// edgeNormals

76
(
2(0 1)
2(0 2)
2(3 4)
2(5 6)
2(7 8)
2(7 9)
2(8 6)
2(10 9)
2(11 12)
2(13 14)
2(15 12)
2(16 14)
2(17 18)
2(19 20)
2(21 22)
2(23 24)
2(25 26)
2(27 28)
2(29 30)
2(31 32)
2(33 34)
2(35 36)
2(37 38)
2(39 40)
2(41 42)
2(43 44)
2(45 46)
2(47 48)
2(47 49)
2(48 46)
2(50 49)
2(51 52)
2(53 54)
2(55 56)
2(57 58)
2(57 59)
2(58 59)
2(60 56)
2(61 62)
2(63 64)
2(65 66)
2(67 68)
2(67 69)
2(68 70)
2(71 72)
2(71 73)
2(72 70)
2(74 73)
2(75 76)
2(77 78)
2(77 79)
2(78 76)
2(80 79)
2(81 82)
2(83 84)
2(85 86)
2(87 88)
2(89 90)
2(91 92)
2(93 90)
2(94 92)
2(95 96)
2(97 98)
2(99 100)
2(101 102)
2(103 104)
2(105 106)
2(107 108)
2(109 110)
2(111 112)
2(113 114)
2(115 2)
2(1 4)
2(50 51)
2(63 65)
2(80 81)
)

// featurePointNormals

20
(
3(0 1 4)
3(0 1 2)
3(5 6 8)
3(7 8 9)
3(45 46 48)
3(47 48 49)
3(55 56 58)
3(57 58 59)
3(65 66 68)
3(67 68 69)
3(68 70 72)
3(71 72 73)
3(75 76 78)
3(77 78 79)
3(48 46 53)
3(50 49 51)
3(61 62 65)
3(63 64 67)
3(78 76 81)
3(80 79 83)
)

// featurePointEdges

20
(
3(2 72 0)
3(0 71 1)
3(4 6 3)
3(4 7 5)
3(27 29 26)
3(27 30 28)
3(34 37 33)
3(34 36 35)
3(41 43 40)
3(41 45 42)
3(44 46 43)
3(44 47 45)
3(49 51 48)
3(49 52 50)
3(73 32 29)
3(73 31 30)
3(74 40 38)
3(74 42 39)
3(75 53 51)
3(75 54 52)
)

// regionEdges
0()


// ************************************************************************* //
