/*--------------------------------*- C++ -*----------------------------------*\
| =========                 |                                                 |
| \\      /  F ield         | OpenFOAM: The Open Source CFD Toolbox           |
|  \\    /   O peration     | Version:  2006                                  |
|   \\  /    A nd           | Website:  www.openfoam.com                      |
|    \\/     M anipulation  |                                                 |
\*---------------------------------------------------------------------------*/
FoamFile
{
    version     2.0;
    format      ascii;
    class       extendedFeatureEdgeMesh;
    location    "constant/extendedFeatureEdgeMesh";
    object      sx4.extendedFeatureEdgeMesh;
}
// * * * * * * * * * * * * * * * * * * * * * * * * * * * * * * * * * * * * * //

// points

66
(
(31.0910758972 0.413215994835 8.5938501358)
(31.0910758972 0.413215994835 -1)
(31.137178421 0.785148978233 -1)
(31.137178421 0.785148978233 8.5938501358)
(34.7648200989 1.66059994698 -1)
(34.7648200989 1.66059994698 8.5938501358)
(35.1382980347 1.12009000778 -1)
(35.1382980347 1.12009000778 8.5938501358)
(35.2303886414 0.786266028881 -1)
(35.2303886414 0.786266028881 8.5938501358)
(35.2678985596 0.471679985523 -1)
(35.2678985596 0.471679985523 8.5938501358)
(34.8898391724 0.381963014603 -1)
(34.8898391724 0.381963014603 8.5938501358)
(34.7725791931 1.5933599472 -1)
(34.7725791931 1.5933599472 8.5938501358)
(35.1440505981 0.816963016987 -1)
(35.1440505981 0.816963016987 8.5938501358)
(34.8300590515 0.48443800211 -1)
(34.8300590515 0.48443800211 8.5938501358)
(31.1022071838 0.611814975739 -1)
(31.1022071838 0.611814975739 8.5938501358)
(31.1867828369 0.821524977684 -1)
(31.1867828369 0.821524977684 8.5938501358)
(31.2389678955 0.911077022552 -1)
(31.2389678955 0.911077022552 8.5938501358)
(31.3697147369 1.004150033 -1)
(31.3697147369 1.004150033 8.5938501358)
(32.0909690857 1.19305002689 8.5938501358)
(32.0909690857 1.19305002689 -1)
(32.3113517761 1.27319002151 -1)
(32.3113517761 1.27319002151 8.5938501358)
(32.769241333 1.55692994595 -1)
(32.769241333 1.55692994595 8.5938501358)
(33.0439987183 1.65709996223 -1)
(33.0439987183 1.65709996223 8.5938501358)
(33.4761810303 1.72007000446 -1)
(33.4761810303 1.72007000446 8.5938501358)
(33.9913597107 1.73152005672 8.5938501358)
(33.9913597107 1.73152005672 -1)
(34.6496505737 1.67999994755 -1)
(34.6496505737 1.67999994755 8.5938501358)
(34.9809799194 1.34839999676 8.5938501358)
(34.9809799194 1.34839999676 -1)
(35.1095199585 1.03375995159 8.5938501358)
(35.1095199585 1.03375995159 -1)
(35.1738891602 0.431389987469 -1)
(35.1738891602 0.431389987469 8.5938501358)
(34.6293792725 0.535674989223 -1)
(34.6293792725 0.535674989223 8.5938501358)
(34.4372406006 0.531404972076 -1)
(34.4372406006 0.531404972076 8.5938501358)
(34.2069511414 0.412205010653 -1)
(34.2069511414 0.412205010653 8.5938501358)
(33.8093414307 0.419315993786 -1)
(33.8093414307 0.419315993786 8.5938501358)
(33.5960884094 0.441740006208 8.5938501358)
(33.5960884094 0.441740006208 -1)
(33.0837211609 0.433200001717 8.5938501358)
(33.0837211609 0.433200001717 -1)
(32.4051895142 0.417439997196 8.5938501358)
(32.4051895142 0.417439997196 -1)
(32.1246986389 0.343024998903 -1)
(32.1246986389 0.343024998903 8.5938501358)
(31.5584449768 0.332518011332 -1)
(31.5584449768 0.332518011332 8.5938501358)
)

// edges

76
(
(1 0)
(20 1)
(0 21)
(2 20)
(3 2)
(21 3)
(22 2)
(3 23)
(24 22)
(23 25)
(26 24)
(25 27)
(27 28)
(29 26)
(30 29)
(28 31)
(32 30)
(31 33)
(34 32)
(33 35)
(36 34)
(35 37)
(37 38)
(39 36)
(40 39)
(38 41)
(4 40)
(5 4)
(41 5)
(14 4)
(5 15)
(15 42)
(43 14)
(6 43)
(7 6)
(42 7)
(7 44)
(45 6)
(16 45)
(44 17)
(8 16)
(9 8)
(17 9)
(10 8)
(11 10)
(9 11)
(46 10)
(11 47)
(12 46)
(13 12)
(47 13)
(18 12)
(13 19)
(48 18)
(19 49)
(50 48)
(49 51)
(52 50)
(51 53)
(54 52)
(53 55)
(55 56)
(57 54)
(56 58)
(59 57)
(58 60)
(61 59)
(62 61)
(60 63)
(64 62)
(63 65)
(1 64)
(65 0)
(15 14)
(17 16)
(19 18)
)

// concaveStart mixedStart nonFeatureStart
14 14 20
// internalStart flatStart openStart multipleStart
73 76 76 76
// normals

116
(
(-0.998432942532 0.055961230036 0)
(-0.17014669782 -0.985418744099 -0)
(0 -0 -1)
(-0.998432942532 0.055961230036 0)
(0 0 1)
(-0.980248188406 0.197771305117 0)
(0 -0 -1)
(-0.980248188406 0.197771305117 0)
(-0.59135761448 0.806409431863 0)
(-0 0 1)
(-0.59135761448 0.806409431863 0)
(-0.864004033298 0.503484886014 0)
(0 -0 -1)
(-0.864004033298 0.503484886014 0)
(-0 0 1)
(-0.579927107336 0.814668368219 0)
(-0.579927107336 0.814668368219 0)
(-0.253359448837 0.967372208452 0)
(-0 0 1)
(-0.253359448837 0.967372208452 0)
(0 0 -1)
(-0.341746205961 0.939792280619 0)
(0 0 -1)
(-0.341746205961 0.939792280619 0)
(-0 0 1)
(-0.526736365263 0.850028706285 0)
(0 0 -1)
(-0.526736365263 0.850028706285 0)
(-0 0 1)
(-0.342522847056 0.939509499284 0)
(0 0 -1)
(-0.342522847056 0.939509499284 0)
(-0 0 1)
(-0.144180119203 0.989551460626 0)
(0 0 -1)
(-0.144180119203 0.989551460626 0)
(-0 0 1)
(-0.0222199127442 0.999753107261 0)
(-0 0 1)
(-0.0222199127442 0.999753107261 0)
(0 0 -1)
(0.0780248498062 0.996951414469 0)
(0 0 -1)
(0.0780248498062 0.996951414469 0)
(0 0 1)
(0.166107222101 0.986107697346 0)
(-0 -0 -1)
(0.166107222101 0.986107697346 0)
(0.993407871392 0.114633333097 0)
(0 0 1)
(0.993407871392 0.114633333097 0)
(0.761655746029 0.647981885967 0)
(0 0 1)
(0.761655746029 0.647981885967 0)
(0 -0 -1)
(0.823443734224 0.567397934934 0)
(0 0 -1)
(0.823443734224 0.567397934934 0)
(0.948678712994 -0.316241520855 0)
(0 0 1)
(0.948678712994 -0.316241520855 0)
(0.987551863895 0.157293725617 0)
(0 -0 -1)
(0.987551863895 0.157293725617 0)
(0 0 1)
(0.335000145807 0.942218075771 0)
(0 0 -1)
(0.335000145807 0.942218075771 0)
(0.992966323161 0.118397132855 0)
(0 0 1)
(0 -0 -1)
(0.992966323161 0.118397132855 0)
(0.393921408584 -0.919144125727 0)
(0 0 1)
(0.393921408584 -0.919144125727 0)
(0.17143198708 -0.985195957059 0)
(0 0 -1)
(0.17143198708 -0.985195957059 0)
(-0.8637677305 -0.503890174291 -0)
(0 0 1)
(-0.8637677305 -0.503890174291 -0)
(-0.247381417306 -0.968918177336 -0)
(0 0 -1)
(-0.247381417306 -0.968918177336 -0)
(0 0 1)
(0.0222181356716 -0.999753146755 0)
(0 0 -1)
(0.0222181356716 -0.999753146755 0)
(0 0 1)
(0.45968066504 -0.888084278764 0)
(0 0 -1)
(0.45968066504 -0.888084278764 0)
(0 0 1)
(-0.0178814701793 -0.99984011373 -0)
(-0.0178814701793 -0.99984011373 -0)
(-0.104575588722 -0.994516941155 0)
(0 0 1)
(-0.104575588722 -0.994516941155 -0)
(0 0 -1)
(0.0166654260176 -0.999861122144 0)
(0 0 1)
(0.0166654260176 -0.999861122144 0)
(0 0 -1)
(0.023220368925 -0.999730370884 0)
(0 0 1)
(0.023220368925 -0.999730370884 0)
(0 0 -1)
(0.25643164642 -0.966562367731 0)
(0 0 -1)
(0.25643164642 -0.966562367731 0)
(0 0 1)
(0.0185520729925 -0.999827895484 0)
(0 -0 -1)
(0.0185520729925 -0.999827895484 0)
(0 0 1)
(-0.17014669782 -0.985418744099 -0)
)

// normal volume types

116
(
0
0
0
0
0
0
0
0
0
0
0
0
0
0
0
0
0
0
0
0
0
0
0
0
0
0
0
0
0
0
0
0
0
0
0
0
0
0
0
0
0
0
0
0
0
0
0
0
0
0
0
0
0
0
0
0
0
0
0
0
0
0
0
0
0
0
0
0
0
0
0
0
0
0
0
0
0
0
0
0
0
0
0
0
0
0
0
0
0
0
0
0
0
0
0
0
0
0
0
0
0
0
0
0
0
0
0
0
0
0
0
0
0
0
0
0
)

// normalDirections

76
(
2(1 -1)
2(1 -1)
2(1 -1)
2(1 -1)
2(1 -1)
2(1 -1)
2(1 -1)
2(1 -1)
2(1 -1)
2(1 -1)
2(1 -1)
2(1 -1)
2(1 -1)
2(1 -1)
2(1 -1)
2(1 -1)
2(1 -1)
2(1 -1)
2(1 -1)
2(1 -1)
2(1 -1)
2(1 -1)
2(1 -1)
2(1 -1)
2(1 -1)
2(1 -1)
2(1 -1)
2(1 -1)
2(1 -1)
2(1 -1)
2(1 -1)
2(1 -1)
2(1 -1)
2(1 -1)
2(1 -1)
2(1 -1)
2(1 -1)
2(1 -1)
2(1 -1)
2(1 -1)
2(1 -1)
2(1 -1)
2(1 -1)
2(1 -1)
2(1 -1)
2(1 -1)
2(1 -1)
2(1 -1)
2(1 -1)
2(1 -1)
2(1 -1)
2(1 -1)
2(1 -1)
2(1 -1)
2(1 -1)
2(1 -1)
2(1 -1)
2(1 -1)
2(1 -1)
2(1 -1)
2(1 -1)
2(1 -1)
2(1 -1)
2(1 -1)
2(1 -1)
2(1 -1)
2(1 -1)
2(1 -1)
2(1 -1)
2(1 -1)
2(1 -1)
2(1 -1)
2(1 -1)
2(1 -1)
2(1 -1)
2(1 -1)
)

// edgeNormals

76
(
2(0 1)
2(0 2)
2(3 4)
2(5 6)
2(7 8)
2(7 9)
2(8 6)
2(10 9)
2(11 12)
2(13 14)
2(15 12)
2(16 14)
2(17 18)
2(19 20)
2(21 22)
2(23 24)
2(25 26)
2(27 28)
2(29 30)
2(31 32)
2(33 34)
2(35 36)
2(37 38)
2(39 40)
2(41 42)
2(43 44)
2(45 46)
2(47 48)
2(47 49)
2(48 46)
2(50 49)
2(51 52)
2(53 54)
2(55 56)
2(57 58)
2(57 59)
2(58 59)
2(60 56)
2(61 62)
2(63 64)
2(65 66)
2(67 68)
2(67 69)
2(68 70)
2(71 72)
2(71 73)
2(72 70)
2(74 73)
2(75 76)
2(77 78)
2(77 79)
2(78 76)
2(80 79)
2(81 82)
2(83 84)
2(85 86)
2(87 88)
2(89 90)
2(91 92)
2(93 90)
2(94 92)
2(95 96)
2(97 98)
2(99 100)
2(101 102)
2(103 104)
2(105 106)
2(107 108)
2(109 110)
2(111 112)
2(113 114)
2(115 2)
2(1 4)
2(50 51)
2(63 65)
2(80 81)
)

// featurePointNormals

20
(
3(0 1 4)
3(0 1 2)
3(5 6 8)
3(7 8 9)
3(45 46 48)
3(47 48 49)
3(55 56 58)
3(57 58 59)
3(65 66 68)
3(67 68 69)
3(68 70 72)
3(71 72 73)
3(75 76 78)
3(77 78 79)
3(48 46 53)
3(50 49 51)
3(61 62 65)
3(63 64 67)
3(78 76 81)
3(80 79 83)
)

// featurePointEdges

20
(
3(2 72 0)
3(0 71 1)
3(4 6 3)
3(4 7 5)
3(27 29 26)
3(27 30 28)
3(34 37 33)
3(34 36 35)
3(41 43 40)
3(41 45 42)
3(44 46 43)
3(44 47 45)
3(49 51 48)
3(49 52 50)
3(73 32 29)
3(73 31 30)
3(74 40 38)
3(74 42 39)
3(75 53 51)
3(75 54 52)
)

// regionEdges
0()


// ************************************************************************* //
