/*--------------------------------*- C++ -*----------------------------------*\
| =========                 |                                                 |
| \\      /  F ield         | OpenFOAM: The Open Source CFD Toolbox           |
|  \\    /   O peration     | Version:  2006                                  |
|   \\  /    A nd           | Website:  www.openfoam.com                      |
|    \\/     M anipulation  |                                                 |
\*---------------------------------------------------------------------------*/
FoamFile
{
    version     2.0;
    format      ascii;
    class       polyBoundaryMesh;
    location    "constant/polyMesh";
    object      boundary;
}
// * * * * * * * * * * * * * * * * * * * * * * * * * * * * * * * * * * * * * //

7
(
    frontAndBack
    {
        type            empty;
        inGroups        1(empty);
        nFaces          5736;
        startFace       58104;
    }
    inlet
    {
        type            patch;
        nFaces          8;
        startFace       63840;
    }
    outlet
    {
        type            patch;
        nFaces          8;
        startFace       63848;
    }
    lowerWall
    {
        type            wall;
        inGroups        1(wall);
        nFaces          310;
        startFace       63856;
    }
    upperWall
    {
        type            wall;
        inGroups        1(wall);
        nFaces          55;
        startFace       64166;
    }
    auto
    {
        type            patch;
        inGroups        1(objetos);
        nFaces          896;
        startFace       64221;
    }
    camion
    {
        type            patch;
        inGroups        1(objetos);
        nFaces          8446;
        startFace       65117;
    }
)

// ************************************************************************* //
